GW 	     1 	    11 	 0.24983 	     0 	     0 	 -0.24983 	     0 	     0 	 0.005 
GE 
FR 	     0 	     1 	     0 	     0 	   300 	     0 
EX 	     0 	     1 	     6 	     0 	     1 
RP 	     0 	    37 	    73 	 1000 	     0 	     0 	     5 	     5 	     0 	     0 
EN